6
	Energy:       0.1540881
C         -0.97469       -0.08502        0.00000
C          0.24579        0.44651        0.00000
H         -1.81289        0.46984        0.40911
H         -1.13936       -1.07666       -0.40911
H          0.41046        1.43815        0.40911
H          1.08398       -0.10835       -0.40911
